<?xml version="1.0" encoding="UTF-8"?>

<!-- generated on Fri Oct 10 03:44:21 2025 by Eclipse SUMO netgenerate Version 1.4.0
<configuration xmlns:xsi="http://www.w3.org/2001/XMLSchema-instance" xsi:noNamespaceSchemaLocation="http://sumo.dlr.de/xsd/netgenerateConfiguration.xsd">

    <grid_network>
        <grid value="true"/>
        <grid.number value="1"/>
        <grid.length value="100"/>
        <grid.attach-length value="100"/>
    </grid_network>

    <output>
        <output-file value="mygrid.net.xml"/>
    </output>

    <building_defaults>
        <default.lanenumber value="3"/>
    </building_defaults>

    <tls_building>
        <tls.guess value="true"/>
        <tls.default-type value="actuated"/>
    </tls_building>

    <junctions>
        <no-turnarounds value="true"/>
    </junctions>

</configuration>
-->

<net version="1.3" junctionCornerDetail="5" limitTurnSpeed="5.50" xmlns:xsi="http://www.w3.org/2001/XMLSchema-instance" xsi:noNamespaceSchemaLocation="http://sumo.dlr.de/xsd/net_file.xsd">

    <location netOffset="0.00,0.00" convBoundary="0.00,0.00,200.00,200.00" origBoundary="0.00,0.00,200.00,200.00" projParameter="!"/>

    <edge id=":A0_0" function="internal">
        <lane id=":A0_0_0" index="0" speed="6.51" length="9.03" shape="92.00,113.60 91.65,111.15 90.60,109.40 88.85,108.35 86.40,108.00"/>
    </edge>
    <edge id=":A0_1" function="internal">
        <lane id=":A0_1_0" index="0" speed="13.89" length="27.20" shape="92.00,113.60 92.00,86.40"/>
        <lane id=":A0_1_1" index="1" speed="13.89" length="27.20" shape="95.20,113.60 95.20,86.40"/>
        <lane id=":A0_1_2" index="2" speed="13.89" length="27.20" shape="98.40,113.60 98.40,86.40"/>
    </edge>
    <edge id=":A0_4" function="internal">
        <lane id=":A0_4_0" index="0" speed="10.36" length="7.98" shape="98.40,113.60 99.35,106.95 100.00,105.87"/>
    </edge>
    <edge id=":A0_20" function="internal">
        <lane id=":A0_20_0" index="0" speed="10.36" length="16.53" shape="100.00,105.87 102.20,102.20 106.95,99.35 113.60,98.40"/>
    </edge>
    <edge id=":A0_5" function="internal">
        <lane id=":A0_5_0" index="0" speed="6.51" length="9.03" shape="113.60,108.00 111.15,108.35 109.40,109.40 108.35,111.15 108.00,113.60"/>
    </edge>
    <edge id=":A0_6" function="internal">
        <lane id=":A0_6_0" index="0" speed="13.89" length="27.20" shape="113.60,108.00 86.40,108.00"/>
        <lane id=":A0_6_1" index="1" speed="13.89" length="27.20" shape="113.60,104.80 86.40,104.80"/>
        <lane id=":A0_6_2" index="2" speed="13.89" length="27.20" shape="113.60,101.60 86.40,101.60"/>
    </edge>
    <edge id=":A0_9" function="internal">
        <lane id=":A0_9_0" index="0" speed="10.36" length="7.98" shape="113.60,101.60 106.95,100.65 105.87,100.00"/>
    </edge>
    <edge id=":A0_21" function="internal">
        <lane id=":A0_21_0" index="0" speed="10.36" length="16.53" shape="105.87,100.00 102.20,97.80 99.35,93.05 98.40,86.40"/>
    </edge>
    <edge id=":A0_10" function="internal">
        <lane id=":A0_10_0" index="0" speed="6.51" length="9.03" shape="108.00,86.40 108.35,88.85 109.40,90.60 111.15,91.65 113.60,92.00"/>
    </edge>
    <edge id=":A0_11" function="internal">
        <lane id=":A0_11_0" index="0" speed="13.89" length="27.20" shape="108.00,86.40 108.00,113.60"/>
        <lane id=":A0_11_1" index="1" speed="13.89" length="27.20" shape="104.80,86.40 104.80,113.60"/>
        <lane id=":A0_11_2" index="2" speed="13.89" length="27.20" shape="101.60,86.40 101.60,113.60"/>
    </edge>
    <edge id=":A0_14" function="internal">
        <lane id=":A0_14_0" index="0" speed="10.36" length="7.98" shape="101.60,86.40 100.65,93.05 100.00,94.13"/>
    </edge>
    <edge id=":A0_22" function="internal">
        <lane id=":A0_22_0" index="0" speed="10.36" length="16.53" shape="100.00,94.13 97.80,97.80 93.05,100.65 86.40,101.60"/>
    </edge>
    <edge id=":A0_15" function="internal">
        <lane id=":A0_15_0" index="0" speed="6.51" length="9.03" shape="86.40,92.00 88.85,91.65 90.60,90.60 91.65,88.85 92.00,86.40"/>
    </edge>
    <edge id=":A0_16" function="internal">
        <lane id=":A0_16_0" index="0" speed="13.89" length="27.20" shape="86.40,92.00 113.60,92.00"/>
        <lane id=":A0_16_1" index="1" speed="13.89" length="27.20" shape="86.40,95.20 113.60,95.20"/>
        <lane id=":A0_16_2" index="2" speed="13.89" length="27.20" shape="86.40,98.40 113.60,98.40"/>
    </edge>
    <edge id=":A0_19" function="internal">
        <lane id=":A0_19_0" index="0" speed="10.36" length="7.98" shape="86.40,98.40 93.05,99.35 94.13,100.00"/>
    </edge>
    <edge id=":A0_23" function="internal">
        <lane id=":A0_23_0" index="0" speed="10.36" length="16.53" shape="94.13,100.00 97.80,102.20 100.65,106.95 101.60,113.60"/>
    </edge>

    <edge id="A0bottom0" from="A0" to="bottom0" priority="-1">
        <lane id="A0bottom0_0" index="0" speed="13.89" length="86.40" shape="92.00,86.40 92.00,0.00"/>
        <lane id="A0bottom0_1" index="1" speed="13.89" length="86.40" shape="95.20,86.40 95.20,0.00"/>
        <lane id="A0bottom0_2" index="2" speed="13.89" length="86.40" shape="98.40,86.40 98.40,0.00"/>
    </edge>
    <edge id="A0left0" from="A0" to="left0" priority="-1">
        <lane id="A0left0_0" index="0" speed="13.89" length="86.40" shape="86.40,108.00 0.00,108.00"/>
        <lane id="A0left0_1" index="1" speed="13.89" length="86.40" shape="86.40,104.80 0.00,104.80"/>
        <lane id="A0left0_2" index="2" speed="13.89" length="86.40" shape="86.40,101.60 0.00,101.60"/>
    </edge>
    <edge id="A0right0" from="A0" to="right0" priority="-1">
        <lane id="A0right0_0" index="0" speed="13.89" length="86.40" shape="113.60,92.00 200.00,92.00"/>
        <lane id="A0right0_1" index="1" speed="13.89" length="86.40" shape="113.60,95.20 200.00,95.20"/>
        <lane id="A0right0_2" index="2" speed="13.89" length="86.40" shape="113.60,98.40 200.00,98.40"/>
    </edge>
    <edge id="A0top0" from="A0" to="top0" priority="-1">
        <lane id="A0top0_0" index="0" speed="13.89" length="86.40" shape="108.00,113.60 108.00,200.00"/>
        <lane id="A0top0_1" index="1" speed="13.89" length="86.40" shape="104.80,113.60 104.80,200.00"/>
        <lane id="A0top0_2" index="2" speed="13.89" length="86.40" shape="101.60,113.60 101.60,200.00"/>
    </edge>
    <edge id="bottom0A0" from="bottom0" to="A0" priority="-1">
        <lane id="bottom0A0_0" index="0" speed="13.89" length="86.40" shape="108.00,0.00 108.00,86.40"/>
        <lane id="bottom0A0_1" index="1" speed="13.89" length="86.40" shape="104.80,0.00 104.80,86.40"/>
        <lane id="bottom0A0_2" index="2" speed="13.89" length="86.40" shape="101.60,0.00 101.60,86.40"/>
    </edge>
    <edge id="left0A0" from="left0" to="A0" priority="-1">
        <lane id="left0A0_0" index="0" speed="13.89" length="86.40" shape="0.00,92.00 86.40,92.00"/>
        <lane id="left0A0_1" index="1" speed="13.89" length="86.40" shape="0.00,95.20 86.40,95.20"/>
        <lane id="left0A0_2" index="2" speed="13.89" length="86.40" shape="0.00,98.40 86.40,98.40"/>
    </edge>
    <edge id="right0A0" from="right0" to="A0" priority="-1">
        <lane id="right0A0_0" index="0" speed="13.89" length="86.40" shape="200.00,108.00 113.60,108.00"/>
        <lane id="right0A0_1" index="1" speed="13.89" length="86.40" shape="200.00,104.80 113.60,104.80"/>
        <lane id="right0A0_2" index="2" speed="13.89" length="86.40" shape="200.00,101.60 113.60,101.60"/>
    </edge>
    <edge id="top0A0" from="top0" to="A0" priority="-1">
        <lane id="top0A0_0" index="0" speed="13.89" length="86.40" shape="92.00,200.00 92.00,113.60"/>
        <lane id="top0A0_1" index="1" speed="13.89" length="86.40" shape="95.20,200.00 95.20,113.60"/>
        <lane id="top0A0_2" index="2" speed="13.89" length="86.40" shape="98.40,200.00 98.40,113.60"/>
    </edge>

    <tlLogic id="A0" type="actuated" programID="0" offset="0">
        <phase duration="42" state="GGGGgrrrrrGGGGgrrrrr" minDur="5" maxDur="50"/>
        <phase duration="3"  state="yyyyyrrrrryyyyyrrrrr"/>
        <phase duration="42" state="rrrrrGGGGgrrrrrGGGGg" minDur="5" maxDur="50"/>
        <phase duration="3"  state="rrrrryyyyyrrrrryyyyy"/>
    </tlLogic>

    <junction id="A0" type="traffic_light" x="100.00" y="100.00" incLanes="top0A0_0 top0A0_1 top0A0_2 right0A0_0 right0A0_1 right0A0_2 bottom0A0_0 bottom0A0_1 bottom0A0_2 left0A0_0 left0A0_1 left0A0_2" intLanes=":A0_0_0 :A0_1_0 :A0_1_1 :A0_1_2 :A0_20_0 :A0_5_0 :A0_6_0 :A0_6_1 :A0_6_2 :A0_21_0 :A0_10_0 :A0_11_0 :A0_11_1 :A0_11_2 :A0_22_0 :A0_15_0 :A0_16_0 :A0_16_1 :A0_16_2 :A0_23_0" shape="90.40,113.60 109.60,113.60 110.04,111.38 110.60,110.60 111.38,110.04 112.38,109.71 113.60,109.60 113.60,90.40 111.38,89.96 110.60,89.40 110.04,88.62 109.71,87.62 109.60,86.40 90.40,86.40 89.96,88.62 89.40,89.40 88.62,89.96 87.62,90.29 86.40,90.40 86.40,109.60 88.62,110.04 89.40,110.60 89.96,111.38 90.29,112.38">
        <request index="0"  response="00000000000000000000" foes="00000000000111000000" cont="0"/>
        <request index="1"  response="10000000001000000000" foes="11111100001111000000" cont="0"/>
        <request index="2"  response="10000000001000000000" foes="11111100001111000000" cont="0"/>
        <request index="3"  response="10000000001000000000" foes="11111100001111000000" cont="0"/>
        <request index="4"  response="10000011101000000000" foes="11110011101111000000" cont="1"/>
        <request index="5"  response="00000011100000000000" foes="00000011100000000000" cont="0"/>
        <request index="6"  response="00000111100000011111" foes="10000111100000011111" cont="0"/>
        <request index="7"  response="00000111100000011111" foes="10000111100000011111" cont="0"/>
        <request index="8"  response="00000111100000011111" foes="10000111100000011111" cont="0"/>
        <request index="9"  response="01110111100000011110" foes="01110111100000011110" cont="1"/>
        <request index="10" response="00000000000000000000" foes="01110000000000000000" cont="0"/>
        <request index="11" response="10000000001000000000" foes="11110000001111110000" cont="0"/>
        <request index="12" response="10000000001000000000" foes="11110000001111110000" cont="0"/>
        <request index="13" response="10000000001000000000" foes="11110000001111110000" cont="0"/>
        <request index="14" response="10000000001000001110" foes="11110000001111001110" cont="1"/>
        <request index="15" response="00000000000000001110" foes="00000000000000001110" cont="0"/>
        <request index="16" response="00000111110000011110" foes="00000111111000011110" cont="0"/>
        <request index="17" response="00000111110000011110" foes="00000111111000011110" cont="0"/>
        <request index="18" response="00000111110000011110" foes="00000111111000011110" cont="0"/>
        <request index="19" response="00000111100111011110" foes="00000111100111011110" cont="1"/>
    </junction>
    <junction id="bottom0" type="dead_end" x="100.00" y="0.00" incLanes="A0bottom0_0 A0bottom0_1 A0bottom0_2" intLanes="" shape="100.00,0.00 90.40,0.00 100.00,0.00"/>
    <junction id="left0" type="dead_end" x="0.00" y="100.00" incLanes="A0left0_0 A0left0_1 A0left0_2" intLanes="" shape="0.00,100.00 0.00,109.60 0.00,100.00"/>
    <junction id="right0" type="dead_end" x="200.00" y="100.00" incLanes="A0right0_0 A0right0_1 A0right0_2" intLanes="" shape="200.00,100.00 200.00,90.40 200.00,100.00"/>
    <junction id="top0" type="dead_end" x="100.00" y="200.00" incLanes="A0top0_0 A0top0_1 A0top0_2" intLanes="" shape="100.00,200.00 109.60,200.00 100.00,200.00"/>

    <junction id=":A0_20_0" type="internal" x="100.00" y="105.87" incLanes=":A0_4_0 bottom0A0_0 bottom0A0_1 bottom0A0_2" intLanes=":A0_6_0 :A0_6_1 :A0_6_2 :A0_9_0 :A0_10_0 :A0_11_0 :A0_11_1 :A0_11_2 :A0_16_0 :A0_16_1 :A0_16_2 :A0_19_0"/>
    <junction id=":A0_21_0" type="internal" x="105.87" y="100.00" incLanes=":A0_9_0 left0A0_0 left0A0_1 left0A0_2" intLanes=":A0_1_0 :A0_1_1 :A0_1_2 :A0_4_0 :A0_11_0 :A0_11_1 :A0_11_2 :A0_14_0 :A0_15_0 :A0_16_0 :A0_16_1 :A0_16_2"/>
    <junction id=":A0_22_0" type="internal" x="100.00" y="94.13" incLanes=":A0_14_0 top0A0_0 top0A0_1 top0A0_2" intLanes=":A0_0_0 :A0_1_0 :A0_1_1 :A0_1_2 :A0_6_0 :A0_6_1 :A0_6_2 :A0_9_0 :A0_16_0 :A0_16_1 :A0_16_2 :A0_19_0"/>
    <junction id=":A0_23_0" type="internal" x="94.13" y="100.00" incLanes=":A0_19_0 right0A0_0 right0A0_1 right0A0_2" intLanes=":A0_1_0 :A0_1_1 :A0_1_2 :A0_4_0 :A0_5_0 :A0_6_0 :A0_6_1 :A0_6_2 :A0_11_0 :A0_11_1 :A0_11_2 :A0_14_0"/>

    <connection from="bottom0A0" to="A0right0" fromLane="0" toLane="0" via=":A0_10_0" tl="A0" linkIndex="10" dir="r" state="O"/>
    <connection from="bottom0A0" to="A0top0" fromLane="0" toLane="0" via=":A0_11_0" tl="A0" linkIndex="11" dir="s" state="O"/>
    <connection from="bottom0A0" to="A0top0" fromLane="1" toLane="1" via=":A0_11_1" tl="A0" linkIndex="12" dir="s" state="O"/>
    <connection from="bottom0A0" to="A0top0" fromLane="2" toLane="2" via=":A0_11_2" tl="A0" linkIndex="13" dir="s" state="O"/>
    <connection from="bottom0A0" to="A0left0" fromLane="2" toLane="2" via=":A0_14_0" tl="A0" linkIndex="14" dir="l" state="o"/>
    <connection from="left0A0" to="A0bottom0" fromLane="0" toLane="0" via=":A0_15_0" tl="A0" linkIndex="15" dir="r" state="o"/>
    <connection from="left0A0" to="A0right0" fromLane="0" toLane="0" via=":A0_16_0" tl="A0" linkIndex="16" dir="s" state="o"/>
    <connection from="left0A0" to="A0right0" fromLane="1" toLane="1" via=":A0_16_1" tl="A0" linkIndex="17" dir="s" state="o"/>
    <connection from="left0A0" to="A0right0" fromLane="2" toLane="2" via=":A0_16_2" tl="A0" linkIndex="18" dir="s" state="o"/>
    <connection from="left0A0" to="A0top0" fromLane="2" toLane="2" via=":A0_19_0" tl="A0" linkIndex="19" dir="l" state="o"/>
    <connection from="right0A0" to="A0top0" fromLane="0" toLane="0" via=":A0_5_0" tl="A0" linkIndex="5" dir="r" state="o"/>
    <connection from="right0A0" to="A0left0" fromLane="0" toLane="0" via=":A0_6_0" tl="A0" linkIndex="6" dir="s" state="o"/>
    <connection from="right0A0" to="A0left0" fromLane="1" toLane="1" via=":A0_6_1" tl="A0" linkIndex="7" dir="s" state="o"/>
    <connection from="right0A0" to="A0left0" fromLane="2" toLane="2" via=":A0_6_2" tl="A0" linkIndex="8" dir="s" state="o"/>
    <connection from="right0A0" to="A0bottom0" fromLane="2" toLane="2" via=":A0_9_0" tl="A0" linkIndex="9" dir="l" state="o"/>
    <connection from="top0A0" to="A0left0" fromLane="0" toLane="0" via=":A0_0_0" tl="A0" linkIndex="0" dir="r" state="O"/>
    <connection from="top0A0" to="A0bottom0" fromLane="0" toLane="0" via=":A0_1_0" tl="A0" linkIndex="1" dir="s" state="O"/>
    <connection from="top0A0" to="A0bottom0" fromLane="1" toLane="1" via=":A0_1_1" tl="A0" linkIndex="2" dir="s" state="O"/>
    <connection from="top0A0" to="A0bottom0" fromLane="2" toLane="2" via=":A0_1_2" tl="A0" linkIndex="3" dir="s" state="O"/>
    <connection from="top0A0" to="A0right0" fromLane="2" toLane="2" via=":A0_4_0" tl="A0" linkIndex="4" dir="l" state="o"/>

    <connection from=":A0_0" to="A0left0" fromLane="0" toLane="0" dir="r" state="M"/>
    <connection from=":A0_1" to="A0bottom0" fromLane="0" toLane="0" dir="s" state="M"/>
    <connection from=":A0_1" to="A0bottom0" fromLane="1" toLane="1" dir="s" state="M"/>
    <connection from=":A0_1" to="A0bottom0" fromLane="2" toLane="2" dir="s" state="M"/>
    <connection from=":A0_4" to="A0right0" fromLane="0" toLane="2" via=":A0_20_0" dir="l" state="m"/>
    <connection from=":A0_20" to="A0right0" fromLane="0" toLane="2" dir="l" state="M"/>
    <connection from=":A0_5" to="A0top0" fromLane="0" toLane="0" dir="r" state="M"/>
    <connection from=":A0_6" to="A0left0" fromLane="0" toLane="0" dir="s" state="M"/>
    <connection from=":A0_6" to="A0left0" fromLane="1" toLane="1" dir="s" state="M"/>
    <connection from=":A0_6" to="A0left0" fromLane="2" toLane="2" dir="s" state="M"/>
    <connection from=":A0_9" to="A0bottom0" fromLane="0" toLane="2" via=":A0_21_0" dir="l" state="m"/>
    <connection from=":A0_21" to="A0bottom0" fromLane="0" toLane="2" dir="l" state="M"/>
    <connection from=":A0_10" to="A0right0" fromLane="0" toLane="0" dir="r" state="M"/>
    <connection from=":A0_11" to="A0top0" fromLane="0" toLane="0" dir="s" state="M"/>
    <connection from=":A0_11" to="A0top0" fromLane="1" toLane="1" dir="s" state="M"/>
    <connection from=":A0_11" to="A0top0" fromLane="2" toLane="2" dir="s" state="M"/>
    <connection from=":A0_14" to="A0left0" fromLane="0" toLane="2" via=":A0_22_0" dir="l" state="m"/>
    <connection from=":A0_22" to="A0left0" fromLane="0" toLane="2" dir="l" state="M"/>
    <connection from=":A0_15" to="A0bottom0" fromLane="0" toLane="0" dir="r" state="M"/>
    <connection from=":A0_16" to="A0right0" fromLane="0" toLane="0" dir="s" state="M"/>
    <connection from=":A0_16" to="A0right0" fromLane="1" toLane="1" dir="s" state="M"/>
    <connection from=":A0_16" to="A0right0" fromLane="2" toLane="2" dir="s" state="M"/>
    <connection from=":A0_19" to="A0top0" fromLane="0" toLane="2" via=":A0_23_0" dir="l" state="m"/>
    <connection from=":A0_23" to="A0top0" fromLane="0" toLane="2" dir="l" state="M"/>

    <inductionLoop id="loop1" lane="top0A0_2" pos="60" freq="60" file="NUL"/>
</net>
