<?xml version="1.0" encoding="UTF-8"?>
<!-- Forward AND left on left lane, right only on right lane -->

<net version="1.3" junctionCornerDetail="5" lefthand="true" limitTurnSpeed="5.50" xmlns:xsi="http://www.w3.org/2001/XMLSchema-instance" xsi:noNamespaceSchemaLocation="http://sumo.dlr.de/xsd/net_file.xsd">

    <location netOffset="0.00,-0.00" convBoundary="0.00,-0.00,400.00,400.00" origBoundary="0.00,0.00,400.00,400.00" projParameter="!"/>

    <edge id=":A0_0" function="internal">
        <lane id=":A0_0_0" index="0" speed="6.51" length="9.03" shape="192.00,186.40 191.65,188.85 190.60,190.60 188.85,191.65 186.40,192.00"/>
    </edge>
    <edge id=":A0_1" function="internal">
        <lane id=":A0_1_0" index="0" speed="13.89" length="27.20" shape="192.00,186.40 192.00,213.60"/>
        <lane id=":A0_1_1" index="1" speed="13.89" length="27.20" shape="195.20,186.40 195.20,213.60"/>
        <!-- <lane id=":A0_1_2" index="2" speed="13.89" length="27.20" shape="198.40,186.40 198.40,213.60"/> -->
    </edge>
    <edge id=":A0_4" function="internal">
        <lane id=":A0_4_0" index="0" speed="10.36" length="7.98" shape="198.40,186.40 199.35,193.05 200.00,194.13"/>
    </edge>
    <edge id=":A0_20" function="internal">
        <lane id=":A0_20_0" index="0" speed="10.36" length="16.53" shape="200.00,194.13 202.20,197.80 206.95,200.65 213.60,201.60"/>
    </edge>
    <edge id=":A0_5" function="internal">
        <lane id=":A0_5_0" index="0" speed="6.51" length="9.03" shape="213.60,192.00 211.15,191.65 209.40,190.60 208.35,188.85 208.00,186.40"/>
    </edge>
    <edge id=":A0_6" function="internal">
        <lane id=":A0_6_0" index="0" speed="13.89" length="27.20" shape="213.60,192.00 186.40,192.00"/>
        <lane id=":A0_6_1" index="1" speed="13.89" length="27.20" shape="213.60,195.20 186.40,195.20"/>
        <!-- <lane id=":A0_6_2" index="2" speed="13.89" length="27.20" shape="213.60,198.40 186.40,198.40"/> -->
    </edge>
    <edge id=":A0_9" function="internal">
        <lane id=":A0_9_0" index="0" speed="10.36" length="7.98" shape="213.60,198.40 206.95,199.35 205.87,200.00"/>
    </edge>
    <edge id=":A0_21" function="internal">
        <lane id=":A0_21_0" index="0" speed="10.36" length="16.53" shape="205.87,200.00 202.20,202.20 199.35,206.95 198.40,213.60"/>
    </edge>
    <edge id=":A0_10" function="internal">
        <lane id=":A0_10_0" index="0" speed="6.51" length="9.03" shape="208.00,213.60 208.35,211.15 209.40,209.40 211.15,208.35 213.60,208.00"/>
    </edge>
    <edge id=":A0_11" function="internal">
        <lane id=":A0_11_0" index="0" speed="13.89" length="27.20" shape="208.00,213.60 208.00,186.40"/>
        <lane id=":A0_11_1" index="1" speed="13.89" length="27.20" shape="204.80,213.60 204.80,186.40"/>
        <!-- <lane id=":A0_11_2" index="2" speed="13.89" length="27.20" shape="201.60,213.60 201.60,186.40"/> -->
    </edge>
    <edge id=":A0_14" function="internal">
        <lane id=":A0_14_0" index="0" speed="10.36" length="7.98" shape="201.60,213.60 200.65,206.95 200.00,205.87"/>
    </edge>
    <edge id=":A0_22" function="internal">
        <lane id=":A0_22_0" index="0" speed="10.36" length="16.53" shape="200.00,205.87 197.80,202.20 193.05,199.35 186.40,198.40"/>
    </edge>
    <edge id=":A0_15" function="internal">
        <lane id=":A0_15_0" index="0" speed="6.51" length="9.03" shape="186.40,208.00 188.85,208.35 190.60,209.40 191.65,211.15 192.00,213.60"/>
    </edge>
    <edge id=":A0_16" function="internal">
        <lane id=":A0_16_0" index="0" speed="13.89" length="27.20" shape="186.40,208.00 213.60,208.00"/>
        <lane id=":A0_16_1" index="1" speed="13.89" length="27.20" shape="186.40,204.80 213.60,204.80"/>
        <!-- <lane id=":A0_16_2" index="2" speed="13.89" length="27.20" shape="186.40,201.60 213.60,201.60"/> -->
    </edge>
    <edge id=":A0_19" function="internal">
        <lane id=":A0_19_0" index="0" speed="10.36" length="7.98" shape="186.40,201.60 193.05,200.65 194.13,200.00"/>
    </edge>
    <edge id=":A0_23" function="internal">
        <lane id=":A0_23_0" index="0" speed="10.36" length="16.53" shape="194.13,200.00 197.80,197.80 200.65,193.05 201.60,186.40"/>
    </edge>

    <edge id="A0bottom0" from="A0" to="bottom0" priority="-1">
        <lane id="A0bottom0_0" index="0" speed="13.89" length="186.40" shape="208.00,186.40 208.00,-0.00"/>
        <lane id="A0bottom0_1" index="1" speed="13.89" length="186.40" shape="204.80,186.40 204.80,-0.00"/>
        <lane id="A0bottom0_2" index="2" speed="13.89" length="186.40" shape="201.60,186.40 201.60,-0.00"/>
    </edge>
    <edge id="A0left0" from="A0" to="left0" priority="-1">
        <lane id="A0left0_0" index="0" speed="13.89" length="186.40" shape="186.40,192.00 0.00,192.00"/>
        <lane id="A0left0_1" index="1" speed="13.89" length="186.40" shape="186.40,195.20 0.00,195.20"/>
        <lane id="A0left0_2" index="2" speed="13.89" length="186.40" shape="186.40,198.40 0.00,198.40"/>
    </edge>
    <edge id="A0right0" from="A0" to="right0" priority="-1">
        <lane id="A0right0_0" index="0" speed="13.89" length="186.40" shape="213.60,208.00 400.00,208.00"/>
        <lane id="A0right0_1" index="1" speed="13.89" length="186.40" shape="213.60,204.80 400.00,204.80"/>
        <lane id="A0right0_2" index="2" speed="13.89" length="186.40" shape="213.60,201.60 400.00,201.60"/>
    </edge>
    <edge id="A0top0" from="A0" to="top0" priority="-1">
        <lane id="A0top0_0" index="0" speed="13.89" length="186.40" shape="192.00,213.60 192.00,400.00"/>
        <lane id="A0top0_1" index="1" speed="13.89" length="186.40" shape="195.20,213.60 195.20,400.00"/>
        <lane id="A0top0_2" index="2" speed="13.89" length="186.40" shape="198.40,213.60 198.40,400.00"/>
    </edge>
    <edge id="bottom0A0" from="bottom0" to="A0" priority="-1">
        <lane id="bottom0A0_0" index="0" speed="13.89" length="186.40" shape="192.00,-0.00 192.00,186.40"/>
        <lane id="bottom0A0_1" index="1" speed="13.89" length="186.40" shape="195.20,-0.00 195.20,186.40"/>
        <lane id="bottom0A0_2" index="2" speed="13.89" length="186.40" shape="198.40,-0.00 198.40,186.40"/>
    </edge>
    <edge id="left0A0" from="left0" to="A0" priority="-1">
        <lane id="left0A0_0" index="0" speed="13.89" length="186.40" shape="0.00,208.00 186.40,208.00"/>
        <lane id="left0A0_1" index="1" speed="13.89" length="186.40" shape="0.00,204.80 186.40,204.80"/>
        <lane id="left0A0_2" index="2" speed="13.89" length="186.40" shape="0.00,201.60 186.40,201.60"/>
    </edge>
    <edge id="right0A0" from="right0" to="A0" priority="-1">
        <lane id="right0A0_0" index="0" speed="13.89" length="186.40" shape="400.00,192.00 213.60,192.00"/>
        <lane id="right0A0_1" index="1" speed="13.89" length="186.40" shape="400.00,195.20 213.60,195.20"/>
        <lane id="right0A0_2" index="2" speed="13.89" length="186.40" shape="400.00,198.40 213.60,198.40"/>
    </edge>
    <edge id="top0A0" from="top0" to="A0" priority="-1">
        <lane id="top0A0_0" index="0" speed="13.89" length="186.40" shape="208.00,400.00 208.00,213.60"/>
        <lane id="top0A0_1" index="1" speed="13.89" length="186.40" shape="204.80,400.00 204.80,213.60"/>
        <lane id="top0A0_2" index="2" speed="13.89" length="186.40" shape="201.60,400.00 201.60,213.60"/>
    </edge>

    <tlLogic id="A0" type="static" programID="0" offset="0">
        <phase duration="42" state="GGGgrrrrGGGgrrrr"/>
        <phase duration="3"  state="yyyyrrrryyyyrrrr"/>
        <phase duration="42" state="rrrrGGGgrrrrGGGg"/>
        <phase duration="3"  state="rrrryyyyrrrryyyy"/>
    </tlLogic>

    <junction id="A0" type="traffic_light" x="200.00" y="200.00" incLanes="bottom0A0_0 bottom0A0_1 bottom0A0_2 right0A0_0 right0A0_1 right0A0_2 top0A0_0 top0A0_1 top0A0_2 left0A0_0 left0A0_1 left0A0_2" intLanes=":A0_0_0 :A0_1_0 :A0_1_1 :A0_20_0 :A0_5_0 :A0_6_0 :A0_6_1 :A0_21_0 :A0_10_0 :A0_11_0 :A0_11_1 :A0_22_0 :A0_15_0 :A0_16_0 :A0_16_1 :A0_23_0" shape="190.40,186.40 209.60,186.40 210.04,188.62 210.60,189.40 211.38,189.96 212.38,190.29 213.60,190.40 213.60,209.60 211.38,210.04 210.60,210.60 210.04,211.38 209.71,212.38 209.60,213.60 190.40,213.60 189.96,211.38 189.40,210.60 188.62,210.04 187.62,209.71 186.40,209.60 186.40,190.40 188.62,189.96 189.40,189.40 189.96,188.62 190.29,187.62">
        <request index="0"  response="0000000000000000" foes="0000000001100000" cont="0"/>
        <request index="1"  response="1000000010000000" foes="1111100011100000" cont="0"/>
        <request index="2"  response="1000000010000000" foes="1111100011100000" cont="0"/>
        <!-- <request index="3"  response="1000000010000000" foes="1111100011100000" cont="0"/> -->
        <request index="3"  response="1000011010000000" foes="1110011011100000" cont="1"/>
        <request index="4"  response="0000011000000000" foes="0000011000000000" cont="0"/>
        <request index="5"  response="0000111000001111" foes="1000111000001111" cont="0"/>
        <request index="6"  response="0000111000001111" foes="1000111000001111" cont="0"/>
        <!-- <request index="8"  response="0000111000001111" foes="1000111000001111" cont="0"/> -->
        <request index="7"  response="0110111000001110" foes="0110111000001110" cont="1"/>
        <request index="8" response="0000000000000000" foes="0110000000000000" cont="0"/>
        <request index="9" response="1000000010000000" foes="1110000011111000" cont="0"/>
        <request index="10" response="1000000010000000" foes="1110000011111000" cont="0"/>
        <!-- <request index="13" response="1000000010000000" foes="1110000011111000" cont="0"/> -->
        <request index="11" response="1000000010000110" foes="1110000011100110" cont="1"/>
        <request index="12" response="0000000000000110" foes="0000000000000110" cont="0"/>
        <request index="13" response="0000111100001110" foes="0000111110001110" cont="0"/>
        <request index="14" response="0000111100001110" foes="0000111110001110" cont="0"/>
        <!-- <request index="18" response="0000111100001110" foes="0000111110001110" cont="0"/> -->
        <request index="15" response="0000111001101110" foes="0000111001101110" cont="1"/>
    </junction>
    <junction id="bottom0" type="dead_end" x="200.00" y="-0.00" incLanes="A0bottom0_0 A0bottom0_1 A0bottom0_2" intLanes="" shape="200.00,-0.00 209.60,-0.00 200.00,-0.00"/>
    <junction id="left0" type="dead_end" x="0.00" y="200.00" incLanes="A0left0_0 A0left0_1 A0left0_2" intLanes="" shape="0.00,200.00 0.00,190.40 0.00,200.00"/>
    <junction id="right0" type="dead_end" x="400.00" y="200.00" incLanes="A0right0_0 A0right0_1 A0right0_2" intLanes="" shape="400.00,200.00 400.00,209.60 400.00,200.00"/>
    <junction id="top0" type="dead_end" x="200.00" y="400.00" incLanes="A0top0_0 A0top0_1 A0top0_2" intLanes="" shape="200.00,400.00 190.40,400.00 200.00,400.00"/>

    <junction id=":A0_20_0" type="internal" x="200.00" y="194.13" incLanes=":A0_4_0 top0A0_0 top0A0_1 top0A0_2" intLanes=":A0_6_0 :A0_6_1 :A0_9_0 :A0_10_0 :A0_11_0 :A0_11_1 :A0_16_0 :A0_16_1 :A0_19_0"/>
    <junction id=":A0_21_0" type="internal" x="205.87" y="200.00" incLanes=":A0_9_0 left0A0_0 left0A0_1 left0A0_2" intLanes=":A0_1_0 :A0_1_1 :A0_4_0 :A0_11_0 :A0_11_1 :A0_14_0 :A0_15_0 :A0_16_0 :A0_16_1"/>
    <junction id=":A0_22_0" type="internal" x="200.00" y="205.87" incLanes=":A0_14_0 bottom0A0_0 bottom0A0_1 bottom0A0_2" intLanes=":A0_0_0 :A0_1_0 :A0_1_1 :A0_6_0 :A0_6_1 :A0_9_0 :A0_16_0 :A0_16_1 :A0_19_0"/>
    <junction id=":A0_23_0" type="internal" x="194.13" y="200.00" incLanes=":A0_19_0 right0A0_0 right0A0_1 right0A0_2" intLanes=":A0_1_0 :A0_1_1 :A0_4_0 :A0_5_0 :A0_6_0 :A0_6_1 :A0_11_0 :A0_11_1 :A0_14_0"/>

    <!-- Link Set 1 -->
    <connection from="bottom0A0" to="A0left0" fromLane="0" toLane="0" via=":A0_0_0" tl="A0" linkIndex="0" dir="l" state="O"/>
    <connection from="bottom0A0" to="A0top0" fromLane="0" toLane="0" via=":A0_1_0" tl="A0" linkIndex="1" dir="s" state="O"/>
    <connection from="bottom0A0" to="A0top0" fromLane="1" toLane="1" via=":A0_1_1" tl="A0" linkIndex="2" dir="s" state="O"/>
    <!-- <connection from="bottom0A0" to="A0top0" fromLane="2" toLane="2" via=":A0_1_2" tl="A0" linkIndex="3" dir="s" state="O"/> -->
    <connection from="bottom0A0" to="A0right0" fromLane="2" toLane="2" via=":A0_4_0" tl="A0" linkIndex="3" dir="r" state="o"/>

    <!-- Link Set 2 -->
    <connection from="left0A0" to="A0top0" fromLane="0" toLane="0" via=":A0_15_0" tl="A0" linkIndex="12" dir="l" state="o"/>
    <connection from="left0A0" to="A0right0" fromLane="0" toLane="0" via=":A0_16_0" tl="A0" linkIndex="13" dir="s" state="o"/>
    <connection from="left0A0" to="A0right0" fromLane="1" toLane="1" via=":A0_16_1" tl="A0" linkIndex="14" dir="s" state="o"/>
    <!-- <connection from="left0A0" to="A0right0" fromLane="2" toLane="2" via=":A0_16_2" tl="A0" linkIndex="18" dir="s" state="o"/> -->
    <connection from="left0A0" to="A0bottom0" fromLane="2" toLane="2" via=":A0_19_0" tl="A0" linkIndex="15" dir="r" state="o"/>

    <!-- Link Set 3 -->
    <connection from="right0A0" to="A0bottom0" fromLane="0" toLane="0" via=":A0_5_0" tl="A0" linkIndex="4" dir="l" state="o"/>
    <connection from="right0A0" to="A0left0" fromLane="0" toLane="0" via=":A0_6_0" tl="A0" linkIndex="5" dir="s" state="o"/>
    <connection from="right0A0" to="A0left0" fromLane="1" toLane="1" via=":A0_6_1" tl="A0" linkIndex="6" dir="s" state="o"/>
    <!-- <connection from="right0A0" to="A0left0" fromLane="2" toLane="2" via=":A0_6_2" tl="A0" linkIndex="8" dir="s" state="o"/> -->
    <connection from="right0A0" to="A0top0" fromLane="2" toLane="2" via=":A0_9_0" tl="A0" linkIndex="7" dir="r" state="o"/>
    <connection from="top0A0" to="A0right0" fromLane="0" toLane="0" via=":A0_10_0" tl="A0" linkIndex="8" dir="l" state="O"/>
    <connection from="top0A0" to="A0bottom0" fromLane="0" toLane="0" via=":A0_11_0" tl="A0" linkIndex="9" dir="s" state="O"/>
    <connection from="top0A0" to="A0bottom0" fromLane="1" toLane="1" via=":A0_11_1" tl="A0" linkIndex="10" dir="s" state="O"/>
    <!-- <connection from="top0A0" to="A0bottom0" fromLane="2" toLane="2" via=":A0_11_2" tl="A0" linkIndex="13" dir="s" state="O"/> -->
    <connection from="top0A0" to="A0left0" fromLane="2" toLane="2" via=":A0_14_0" tl="A0" linkIndex="11" dir="r" state="o"/>

    <connection from=":A0_0" to="A0left0" fromLane="0" toLane="0" dir="l" state="M"/>
    <connection from=":A0_1" to="A0top0" fromLane="0" toLane="0" dir="s" state="M"/>
    <connection from=":A0_1" to="A0top0" fromLane="1" toLane="1" dir="s" state="M"/>
    <!-- <connection from=":A0_1" to="A0top0" fromLane="2" toLane="2" dir="s" state="M"/> -->
    <connection from=":A0_4" to="A0right0" fromLane="0" toLane="2" via=":A0_20_0" dir="r" state="m"/>
    <connection from=":A0_20" to="A0right0" fromLane="0" toLane="2" dir="r" state="M"/>
    <connection from=":A0_5" to="A0bottom0" fromLane="0" toLane="0" dir="l" state="M"/>
    <connection from=":A0_6" to="A0left0" fromLane="0" toLane="0" dir="s" state="M"/>
    <connection from=":A0_6" to="A0left0" fromLane="1" toLane="1" dir="s" state="M"/>
    <!-- <connection from=":A0_6" to="A0left0" fromLane="2" toLane="2" dir="s" state="M"/> -->
    <connection from=":A0_9" to="A0top0" fromLane="0" toLane="2" via=":A0_21_0" dir="r" state="m"/>
    <connection from=":A0_21" to="A0top0" fromLane="0" toLane="2" dir="r" state="M"/>
    <connection from=":A0_10" to="A0right0" fromLane="0" toLane="0" dir="l" state="M"/>
    <connection from=":A0_11" to="A0bottom0" fromLane="0" toLane="0" dir="s" state="M"/>
    <connection from=":A0_11" to="A0bottom0" fromLane="1" toLane="1" dir="s" state="M"/>
    <!-- <connection from=":A0_11" to="A0bottom0" fromLane="2" toLane="2" dir="s" state="M"/> -->
    <connection from=":A0_14" to="A0left0" fromLane="0" toLane="2" via=":A0_22_0" dir="r" state="m"/>
    <connection from=":A0_22" to="A0left0" fromLane="0" toLane="2" dir="r" state="M"/>
    <connection from=":A0_15" to="A0top0" fromLane="0" toLane="0" dir="l" state="M"/>
    <connection from=":A0_16" to="A0right0" fromLane="0" toLane="0" dir="s" state="M"/>
    <connection from=":A0_16" to="A0right0" fromLane="1" toLane="1" dir="s" state="M"/>
    <!-- <connection from=":A0_16" to="A0right0" fromLane="2" toLane="2" dir="s" state="M"/> -->
    <connection from=":A0_19" to="A0bottom0" fromLane="0" toLane="2" via=":A0_23_0" dir="r" state="m"/>
    <connection from=":A0_23" to="A0bottom0" fromLane="0" toLane="2" dir="r" state="M"/>

    <!-- Induction Loop Sensors - Going Into Lane -->
    <inductionLoop id="loop0" lane="top0A0_0" pos="183.60" freq="60" file="NUL"/>
    <inductionLoop id="loop1" lane="top0A0_0" pos="176.10" freq="60" file="NUL"/>
    <inductionLoop id="loop2" lane="top0A0_0" pos="168.60" freq="60" file="NUL"/>
    <inductionLoop id="loop3" lane="top0A0_0" pos="161.10" freq="60" file="NUL"/>
    <inductionLoop id="loop4" lane="top0A0_0" pos="153.60" freq="60" file="NUL"/>
    <inductionLoop id="loop5" lane="top0A0_1" pos="183.60" freq="60" file="NUL"/>
    <inductionLoop id="loop6" lane="top0A0_1" pos="176.10" freq="60" file="NUL"/>
    <inductionLoop id="loop7" lane="top0A0_1" pos="168.60" freq="60" file="NUL"/>
    <inductionLoop id="loop8" lane="top0A0_1" pos="161.10" freq="60" file="NUL"/>
    <inductionLoop id="loop9" lane="top0A0_1" pos="153.60" freq="60" file="NUL"/>
    <inductionLoop id="loop10" lane="top0A0_2" pos="183.60" freq="60" file="NUL"/>
    <inductionLoop id="loop11" lane="top0A0_2" pos="176.10" freq="60" file="NUL"/>
    <inductionLoop id="loop12" lane="top0A0_2" pos="168.60" freq="60" file="NUL"/>
    <inductionLoop id="loop13" lane="top0A0_2" pos="161.10" freq="60" file="NUL"/>
    <inductionLoop id="loop14" lane="top0A0_2" pos="153.60" freq="60" file="NUL"/>
    <inductionLoop id="loop20" lane="right0A0_0" pos="183.60" freq="60" file="NUL"/>
    <inductionLoop id="loop21" lane="right0A0_0" pos="176.10" freq="60" file="NUL"/>
    <inductionLoop id="loop22" lane="right0A0_0" pos="168.60" freq="60" file="NUL"/>
    <inductionLoop id="loop23" lane="right0A0_0" pos="161.10" freq="60" file="NUL"/>
    <inductionLoop id="loop24" lane="right0A0_0" pos="153.60" freq="60" file="NUL"/>
    <inductionLoop id="loop25" lane="right0A0_1" pos="183.60" freq="60" file="NUL"/>
    <inductionLoop id="loop26" lane="right0A0_1" pos="176.10" freq="60" file="NUL"/>
    <inductionLoop id="loop27" lane="right0A0_1" pos="168.60" freq="60" file="NUL"/>
    <inductionLoop id="loop28" lane="right0A0_1" pos="161.10" freq="60" file="NUL"/>
    <inductionLoop id="loop29" lane="right0A0_1" pos="153.60" freq="60" file="NUL"/>
    <inductionLoop id="loop30" lane="right0A0_2" pos="183.60" freq="60" file="NUL"/>
    <inductionLoop id="loop31" lane="right0A0_2" pos="176.10" freq="60" file="NUL"/>
    <inductionLoop id="loop32" lane="right0A0_2" pos="168.60" freq="60" file="NUL"/>
    <inductionLoop id="loop33" lane="right0A0_2" pos="161.10" freq="60" file="NUL"/>
    <inductionLoop id="loop34" lane="right0A0_2" pos="153.60" freq="60" file="NUL"/>
    <inductionLoop id="loop40" lane="bottom0A0_0" pos="183.60" freq="60" file="NUL"/>
    <inductionLoop id="loop41" lane="bottom0A0_0" pos="176.10" freq="60" file="NUL"/>
    <inductionLoop id="loop42" lane="bottom0A0_0" pos="168.60" freq="60" file="NUL"/>
    <inductionLoop id="loop43" lane="bottom0A0_0" pos="161.10" freq="60" file="NUL"/>
    <inductionLoop id="loop44" lane="bottom0A0_0" pos="153.60" freq="60" file="NUL"/>
    <inductionLoop id="loop45" lane="bottom0A0_1" pos="183.60" freq="60" file="NUL"/>
    <inductionLoop id="loop46" lane="bottom0A0_1" pos="176.10" freq="60" file="NUL"/>
    <inductionLoop id="loop47" lane="bottom0A0_1" pos="168.60" freq="60" file="NUL"/>
    <inductionLoop id="loop48" lane="bottom0A0_1" pos="161.10" freq="60" file="NUL"/>
    <inductionLoop id="loop49" lane="bottom0A0_1" pos="153.60" freq="60" file="NUL"/>
    <inductionLoop id="loop50" lane="bottom0A0_2" pos="183.60" freq="60" file="NUL"/>
    <inductionLoop id="loop51" lane="bottom0A0_2" pos="176.10" freq="60" file="NUL"/>
    <inductionLoop id="loop52" lane="bottom0A0_2" pos="168.60" freq="60" file="NUL"/>
    <inductionLoop id="loop53" lane="bottom0A0_2" pos="161.10" freq="60" file="NUL"/>
    <inductionLoop id="loop54" lane="bottom0A0_2" pos="153.60" freq="60" file="NUL"/>
    <inductionLoop id="loop60" lane="left0A0_0" pos="183.60" freq="60" file="NUL"/>
    <inductionLoop id="loop61" lane="left0A0_0" pos="176.10" freq="60" file="NUL"/>
    <inductionLoop id="loop62" lane="left0A0_0" pos="168.60" freq="60" file="NUL"/>
    <inductionLoop id="loop63" lane="left0A0_0" pos="161.10" freq="60" file="NUL"/>
    <inductionLoop id="loop64" lane="left0A0_0" pos="153.60" freq="60" file="NUL"/>
    <inductionLoop id="loop65" lane="left0A0_1" pos="183.60" freq="60" file="NUL"/>
    <inductionLoop id="loop66" lane="left0A0_1" pos="176.10" freq="60" file="NUL"/>
    <inductionLoop id="loop67" lane="left0A0_1" pos="168.60" freq="60" file="NUL"/>
    <inductionLoop id="loop68" lane="left0A0_1" pos="161.10" freq="60" file="NUL"/>
    <inductionLoop id="loop69" lane="left0A0_1" pos="153.60" freq="60" file="NUL"/>
    <inductionLoop id="loop70" lane="left0A0_2" pos="183.60" freq="60" file="NUL"/>
    <inductionLoop id="loop71" lane="left0A0_2" pos="176.10" freq="60" file="NUL"/>
    <inductionLoop id="loop72" lane="left0A0_2" pos="168.60" freq="60" file="NUL"/>
    <inductionLoop id="loop73" lane="left0A0_2" pos="161.10" freq="60" file="NUL"/>
    <inductionLoop id="loop74" lane="left0A0_2" pos="153.60" freq="60" file="NUL"/>

    <!-- Induction Loop Sensor on intersection exit -->
    <inductionLoop id="exit0" lane="A0top0_0" pos="0.00" freq="60" file="NUL"/>
    <inductionLoop id="exit1" lane="A0top0_1" pos="0.00" freq="60" file="NUL"/>
    <inductionLoop id="exit2" lane="A0top0_2" pos="0.00" freq="60" file="NUL"/>
    <inductionLoop id="exit3" lane="A0right0_0" pos="0.00" freq="60" file="NUL"/>
    <inductionLoop id="exit4" lane="A0right0_1" pos="0.00" freq="60" file="NUL"/>
    <inductionLoop id="exit5" lane="A0right0_2" pos="0.00" freq="60" file="NUL"/>
    <inductionLoop id="exit6" lane="A0bottom0_0" pos="0.00" freq="60" file="NUL"/>
    <inductionLoop id="exit7" lane="A0bottom0_1" pos="0.00" freq="60" file="NUL"/>
    <inductionLoop id="exit8" lane="A0bottom0_2" pos="0.00" freq="60" file="NUL"/>
    <inductionLoop id="exit9" lane="A0left0_0" pos="0.00" freq="60" file="NUL"/>
    <inductionLoop id="exit10" lane="A0left0_1" pos="0.00" freq="60" file="NUL"/>
    <inductionLoop id="exit11" lane="A0left0_2" pos="0.00" freq="60" file="NUL"/>

</net>
