<?xml version="1.0" encoding="UTF-8"?>
<configuration>
    <input>
        <net-file value="map_2.net.xml"/>
    </input>
    <time>
        <begin value="0"/>
        <end value="360000"/>
    </time>
</configuration>